Test_Network/condensed/network_17/Feeder_7/Lines.txt
New Line.LINE163 Bus1=160 Bus2=164 phases=3 Linecode=4c_.25 Length=3.6944 Units=m
New Line.LINE166 Bus1=164 Bus2=167 phases=3 Linecode=25_SAC_XC Length=0.49962 Units=m
New Line.LINE221 Bus1=217 Bus2=222 phases=3 Linecode=2c_.04 Length=4.7434 Units=m
New Line.LINE230 Bus1=226 Bus2=231 phases=3 Linecode=25_SAC_XC Length=4.8122 Units=m
New Line.LINE236 Bus1=231 Bus2=237 phases=3 Linecode=25_SAC_XC Length=4.5113 Units=m
New Line.LINE237 Bus1=231 Bus2=238 phases=3 Linecode=25_SAC_XC Length=4.5113 Units=m
New Line.LINE276 Bus1=270 Bus2=277 phases=3 Linecode=2c_.04 Length=5.6374 Units=m
New Line.LINE284 Bus1=277 Bus2=285 phases=3 Linecode=2c_.04 Length=4.0078 Units=m
New Line.LINE358 Bus1=349 Bus2=359 phases=3 Linecode=2c_.04 Length=3.7519 Units=m
New Line.LINE369 Bus1=361 Bus2=370 phases=3 Linecode=2c_.04 Length=4.2429 Units=m
New Line.LINE393 Bus1=385 Bus2=394 phases=3 Linecode=4c_.25 Length=2.7498 Units=m
New Line.LINE399 Bus1=390 Bus2=400 phases=3 Linecode=2c_.04 Length=3.7977 Units=m
New Line.LINE416 Bus1=407 Bus2=417 phases=3 Linecode=2c_.04 Length=5.0462 Units=m
New Line.LINE439 Bus1=428 Bus2=440 phases=3 Linecode=2c_.04 Length=3.6921 Units=m
New Line.LINE440 Bus1=428 Bus2=441 phases=3 Linecode=4c_25 Length=3.7985 Units=m
New Line.LINE455 Bus1=441 Bus2=456 phases=3 Linecode=4c_25 Length=11.9206 Units=m
New Line.LINE470 Bus1=456 Bus2=471 phases=3 Linecode=2c_.04 Length=5.1083 Units=m
New Line.LINE485 Bus1=471 Bus2=486 phases=3 Linecode=2c_.04 Length=4.9069 Units=m
New Line.LINE562 Bus1=546 Bus2=563 phases=3 Linecode=2c_.04 Length=5.7062 Units=m
New Line.LINE563 Bus1=546 Bus2=564 phases=3 Linecode=2c_.04 Length=5.7062 Units=m
New Line.LINE661 Bus1=646 Bus2=662 phases=3 Linecode=2c_.04 Length=3.3098 Units=m
New Line.LINE662 Bus1=646 Bus2=663 phases=3 Linecode=2c_.04 Length=3.3098 Units=m
New Line.LINE712 Bus1=699 Bus2=713 phases=3 Linecode=2c_.04 Length=3.0635 Units=m
New Line.LINE713 Bus1=699 Bus2=714 phases=3 Linecode=2c_.04 Length=3.0635 Units=m
New Line.LINE728 Bus1=711 Bus2=729 phases=3 Linecode=4c_.12 Length=1.5126 Units=m
New Line.LINE748 Bus1=735 Bus2=749 phases=3 Linecode=4c_.04 Length=6.2096 Units=m
New Line.LINE749 Bus1=735 Bus2=750 phases=3 Linecode=4c_.25 Length=9.6528 Units=m
New Line.LINE768 Bus1=750 Bus2=769 phases=3 Linecode=4c_.25 Length=1.5967 Units=m
New Line.LINE788 Bus1=769 Bus2=789 phases=3 Linecode=4c_.04 Length=10.7131 Units=m
New Line.LINE806 Bus1=786 Bus2=807 phases=3 Linecode=4c_.25 Length=11.3485 Units=m
New Line.LINE810 Bus1=789 Bus2=811 phases=3 Linecode=4c_.04 Length=2.3127 Units=m
New Line.LINE830 Bus1=807 Bus2=831 phases=3 Linecode=4c_.25 Length=19.2085 Units=m
New Line.LINE857 Bus1=831 Bus2=858 phases=3 Linecode=4c_25 Length=0.50064 Units=m
New Line.LINE879 Bus1=854 Bus2=880 phases=3 Linecode=2c_.04 Length=3.8384 Units=m
New Line.LINE1037 Bus1=1006 Bus2=1038 phases=3 Linecode=2c_.04 Length=4.8005 Units=m
New Line.LINE1039 Bus1=1007 Bus2=1040 phases=3 Linecode=2c_.04 Length=4.6758 Units=m
New Line.LINE1042 Bus1=1009 Bus2=1043 phases=3 Linecode=2c_.04 Length=5.8102 Units=m
New Line.LINE1098 Bus1=1065 Bus2=1099 phases=3 Linecode=4c_.06 Length=6.6308 Units=m
New Line.LINE1110 Bus1=1076 Bus2=1111 phases=3 Linecode=2c_.04 Length=5.7671 Units=m
New Line.LINE1111 Bus1=1076 Bus2=1112 phases=3 Linecode=2c_.04 Length=6.6783 Units=m
New Line.LINE1117 Bus1=1080 Bus2=1118 phases=3 Linecode=2c_.04 Length=5.2177 Units=m
New Line.LINE1136 Bus1=1099 Bus2=1137 phases=3 Linecode=2c_.04 Length=8.4176 Units=m
New Line.LINE1145 Bus1=1108 Bus2=1146 phases=3 Linecode=2c_.04 Length=6.0387 Units=m
New Line.LINE1146 Bus1=1108 Bus2=1147 phases=3 Linecode=2c_.04 Length=4.0203 Units=m
New Line.LINE1155 Bus1=1120 Bus2=1156 phases=3 Linecode=2c_.04 Length=6.0191 Units=m
New Line.LINE1182 Bus1=1147 Bus2=1183 phases=3 Linecode=2c_.04 Length=6.335 Units=m
New Line.LINE1201 Bus1=1167 Bus2=1202 phases=3 Linecode=2c_.04 Length=4.5689 Units=m
New Line.LINE1203 Bus1=1168 Bus2=1204 phases=3 Linecode=2c_.04 Length=3.0538 Units=m
New Line.LINE1236 Bus1=1206 Bus2=1237 phases=3 Linecode=2c_.04 Length=3.2669 Units=m
New Line.LINE1273 Bus1=1246 Bus2=1274 phases=3 Linecode=2c_.04 Length=2.6936 Units=m
New Line.LINE1287 Bus1=1260 Bus2=1288 phases=3 Linecode=3c_.04 Length=4.2924 Units=m
New Line.LINE1289 Bus1=1261 Bus2=1290 phases=3 Linecode=3c_.04 Length=3.8604 Units=m
New Line.LINE1303 Bus1=1276 Bus2=1304 phases=3 Linecode=2c_.04 Length=2.8265 Units=m
New Line.LINE1319 Bus1=1294 Bus2=1320 phases=3 Linecode=2c_.04 Length=5.8506 Units=m
New Line.LINE1320 Bus1=1294 Bus2=1321 phases=3 Linecode=2c_.04 Length=5.8506 Units=m
New Line.LINE1324 Bus1=1298 Bus2=1325 phases=3 Linecode=2c_.04 Length=5.224 Units=m
New Line.LINE1380 Bus1=1355 Bus2=1381 phases=3 Linecode=2c_.04 Length=4.5288 Units=m
New Line.LINE1433 Bus1=1409 Bus2=1434 phases=3 Linecode=2c_.04 Length=5.0638 Units=m
New Line.LINE1434 Bus1=1409 Bus2=1435 phases=3 Linecode=2c_.04 Length=4.0698 Units=m
New Line.LINE1457 Bus1=1435 Bus2=1458 phases=3 Linecode=2c_.04 Length=6.3638 Units=m
New Line.LINE1544 Bus1=1525 Bus2=1545 phases=3 Linecode=2c_.04 Length=3.7916 Units=m
New Line.LINE1545 Bus1=1525 Bus2=1546 phases=3 Linecode=2c_.04 Length=3.7916 Units=m
New Line.LINE1547 Bus1=1526 Bus2=1548 phases=3 Linecode=2c_.04 Length=7.6123 Units=m
New Line.LINE1548 Bus1=1526 Bus2=1549 phases=3 Linecode=2c_.04 Length=7.6123 Units=m
New Line.LINE1598 Bus1=1581 Bus2=1599 phases=3 Linecode=2c_.04 Length=4.2036 Units=m
New Line.LINE1599 Bus1=1581 Bus2=1600 phases=3 Linecode=2c_.04 Length=4.2036 Units=m
New Line.LINE1636 Bus1=1619 Bus2=1637 phases=3 Linecode=2c_.04 Length=3.5267 Units=m
New Line.LINE1637 Bus1=1619 Bus2=1638 phases=3 Linecode=2c_.04 Length=3.5267 Units=m
New Line.LINE1670 Bus1=1654 Bus2=1671 phases=3 Linecode=2c_.04 Length=4.48 Units=m
New Line.LINE1671 Bus1=1654 Bus2=1672 phases=3 Linecode=2c_.04 Length=4.48 Units=m
New Line.LINE1683 Bus1=1669 Bus2=1684 phases=3 Linecode=2c_.04 Length=5.3588 Units=m
New Line.LINE1720 Bus1=1710 Bus2=1721 phases=3 Linecode=2c_.04 Length=4.8997 Units=m
New Line.LINE1721 Bus1=1710 Bus2=1722 phases=3 Linecode=2c_.04 Length=4.8997 Units=m
New Line.LINE1746 Bus1=1740 Bus2=1747 phases=3 Linecode=2c_.04 Length=5.3444 Units=m
New Line.LINE1992 Bus1=1977 Bus2=1993 phases=3 Linecode=35_SAC_PSC Length=6.6907 Units=m
New Line.LINE1993 Bus1=1977 Bus2=1994 phases=3 Linecode=35_SAC_PSC Length=17.9923 Units=m
New Line.LINE1996 Bus1=1979 Bus2=1997 phases=3 Linecode=35_SAC_PC Length=7.0136 Units=m
New Line.LINE1997 Bus1=1979 Bus2=1998 phases=3 Linecode=35_SAC_PC Length=5.8575 Units=m
New Line.LINE2011 Bus1=1993 Bus2=2012 phases=3 Linecode=35_SAC_PSC Length=7.2737 Units=m
New Line.LINE2012 Bus1=1993 Bus2=2013 phases=3 Linecode=35_SAC_PSC Length=21.2435 Units=m
New Line.LINE2013 Bus1=1993 Bus2=2014 phases=3 Linecode=35_SAC_PSC Length=4.352 Units=m
New Line.LINE2014 Bus1=1993 Bus2=2015 phases=3 Linecode=35_SAC_PSC Length=4.6763 Units=m
New Line.LINE2033 Bus1=2014 Bus2=2034 phases=3 Linecode=35_SAC_PSC Length=4.0137 Units=m
New Line.LINE2253 Bus1=2246 Bus2=2254 phases=3 Linecode=35_SAC_PC Length=31.0764 Units=m
New Line.LINE2254 Bus1=2246 Bus2=2255 phases=3 Linecode=35_SAC_PC Length=24.2773 Units=m
New Line.LINE2255 Bus1=2246 Bus2=2256 phases=3 Linecode=35_SAC_PC Length=31.1183 Units=m
New Line.LINE2256 Bus1=2246 Bus2=2257 phases=3 Linecode=35_SAC_PC Length=31.4189 Units=m
New Line.LINE2257 Bus1=2246 Bus2=2258 phases=3 Linecode=35_SAC_PC Length=4.9646 Units=m
New Line.LINE2258 Bus1=2246 Bus2=2259 phases=3 Linecode=35_SAC_PC Length=20.4021 Units=m
New Line.LINE2259 Bus1=2246 Bus2=2260 phases=3 Linecode=35_SAC_PC Length=24.4949 Units=m
New Line.LINE2260 Bus1=2246 Bus2=2261 phases=3 Linecode=35_SAC_PC Length=30.9248 Units=m
New Line.LINE2261 Bus1=2246 Bus2=2262 phases=3 Linecode=35_SAC_PC Length=19.9457 Units=m
New Line.LINE2262 Bus1=2246 Bus2=2263 phases=3 Linecode=35_SAC_PC Length=24.1998 Units=m
New Line.LINE2263 Bus1=2246 Bus2=2264 phases=3 Linecode=35_SAC_PC Length=31.3747 Units=m
New Line.LINE2264 Bus1=2246 Bus2=2265 phases=3 Linecode=35_SAC_PC Length=7.212 Units=m
New Line.LINE2265 Bus1=2246 Bus2=2266 phases=3 Linecode=35_SAC_PC Length=31.2339 Units=m
New Line.LINE2266 Bus1=2246 Bus2=2267 phases=3 Linecode=35_SAC_PC Length=7.0396 Units=m
New Line.LINE2267 Bus1=2246 Bus2=2268 phases=3 Linecode=35_SAC_PC Length=5.2095 Units=m
New Line.LINE2268 Bus1=2246 Bus2=2269 phases=3 Linecode=35_SAC_PC Length=24.4363 Units=m
New Line.LINECmpd_0 Bus1=217 Bus2=407 phases=3 Linecode=2c_.04 Length=16.206106 Units=m
New Line.LINECmpd_1 Bus1=504 Bus2=773 phases=3 Linecode=4c_.04 Length=36.333523 Units=m
New Line.LINECmpd_2 Bus1=699 Bus2=1294 phases=3 Linecode=2c_.04 Length=24.949057 Units=m
New Line.LINECmpd_3 Bus1=646 Bus2=1403 phases=3 Linecode=2c_.04 Length=19.576104 Units=m
New Line.LINECmpd_4 Bus1=30 Bus2=160 phases=3 Linecode=4c_.3_AS Length=118.584909 Units=m
New Line.LINECmpd_5 Bus1=749 Bus2=1168 phases=3 Linecode=2c_.04 Length=10.79116 Units=m
New Line.LINECmpd_6 Bus1=1147 Bus2=1666 phases=3 Linecode=2c_.04 Length=27.03932 Units=m
New Line.LINECmpd_7 Bus1=901 Bus2=1162 phases=3 Linecode=2c_.04 Length=11.47503 Units=m
New Line.LINECmpd_8 Bus1=1167 Bus2=1725 phases=3 Linecode=2c_.04 Length=20.004322 Units=m
New Line.LINECmpd_9 Bus1=485 Bus2=685 phases=3 Linecode=2c_.04 Length=13.244386 Units=m
New Line.LINECmpd_10 Bus1=1827 Bus2=1979 phases=3 Linecode=35_SAC_PC Length=11.472533 Units=m
New Line.LINECmpd_11 Bus1=1 Bus2=30 phases=3 Linecode=3c_300_SAC_XC Length=13.997696 Units=m
New Line.LINECmpd_12 Bus1=1526 Bus2=1761 phases=3 Linecode=2c_.04 Length=22.39228 Units=m
New Line.LINECmpd_13 Bus1=1307 Bus2=1554 phases=3 Linecode=35_SAC_PC Length=14.06443 Units=m
New Line.LINECmpd_14 Bus1=349 Bus2=646 phases=3 Linecode=2c_.04 Length=7.572651 Units=m
New Line.LINECmpd_15 Bus1=244 Bus2=270 phases=3 Linecode=4c_.25 Length=32.7199 Units=m
New Line.LINECmpd_16 Bus1=749 Bus2=1206 phases=3 Linecode=2c_.04 Length=10.820667 Units=m
New Line.LINECmpd_17 Bus1=703 Bus2=854 phases=3 Linecode=2c_.04 Length=11.72903 Units=m
New Line.LINECmpd_18 Bus1=1525 Bus2=1736 phases=3 Linecode=2c_.04 Length=21.41602 Units=m
New Line.LINECmpd_19 Bus1=1120 Bus2=1710 phases=3 Linecode=2c_.04 Length=17.749585 Units=m
New Line.LINECmpd_20 Bus1=1435 Bus2=1751 phases=3 Linecode=2c_.04 Length=21.63875 Units=m
New Line.LINECmpd_21 Bus1=1923 Bus2=2430 phases=3 Linecode=35_SAC_PC Length=18.332372 Units=m
New Line.LINECmpd_22 Bus1=1307 Bus2=1729 phases=3 Linecode=3c_300_SAC Length=42.283559 Units=m
New Line.LINECmpd_23 Bus1=390 Bus2=699 phases=3 Linecode=2c_.04 Length=9.589128 Units=m
New Line.LINECmpd_24 Bus1=277 Bus2=465 phases=3 Linecode=2c_.04 Length=18.561827 Units=m
New Line.LINECmpd_25 Bus1=266 Bus2=680 phases=3 Linecode=2c_.04 Length=16.216823 Units=m
New Line.LINECmpd_26 Bus1=504 Bus2=703 phases=3 Linecode=4c_.25 Length=30.4077 Units=m
New Line.LINECmpd_27 Bus1=471 Bus2=732 phases=3 Linecode=2c_.04 Length=13.272528 Units=m
New Line.LINECmpd_28 Bus1=814 Bus2=1080 phases=3 Linecode=2c_.04 Length=2.59796 Units=m
New Line.LINECmpd_29 Bus1=901 Bus2=1088 phases=3 Linecode=2c_.04 Length=8.242282 Units=m
New Line.LINECmpd_30 Bus1=1581 Bus2=1803 phases=3 Linecode=2c_.04 Length=30.872438 Units=m
New Line.LINECmpd_31 Bus1=1729 Bus2=1783 phases=3 Linecode=3c_240_XC Length=7.21199 Units=m
New Line.LINECmpd_32 Bus1=266 Bus2=349 phases=3 Linecode=2c_.04 Length=2.317077 Units=m
New Line.LINECmpd_33 Bus1=576 Bus2=610 phases=3 Linecode=4c_.12 Length=16.8942 Units=m
New Line.LINECmpd_34 Bus1=711 Bus2=1197 phases=3 Linecode=35_SAC_XC Length=14.993958 Units=m
New Line.LINECmpd_35 Bus1=1710 Bus2=1784 phases=3 Linecode=2c_.04 Length=15.84442 Units=m
New Line.LINECmpd_36 Bus1=1260 Bus2=1619 phases=3 Linecode=2c_.04 Length=9.423369 Units=m
New Line.LINECmpd_37 Bus1=1080 Bus2=1654 phases=3 Linecode=2c_.04 Length=19.379128 Units=m
New Line.LINECmpd_38 Bus1=1007 Bus2=1445 phases=3 Linecode=2c_.04 Length=10.37273 Units=m
New Line.LINECmpd_39 Bus1=485 Bus2=684 phases=3 Linecode=2c_.04 Length=9.680182 Units=m
New Line.LINECmpd_40 Bus1=270 Bus2=385 phases=3 Linecode=4c_.25 Length=25.613005 Units=m
New Line.LINECmpd_41 Bus1=1076 Bus2=1740 phases=3 Linecode=2c_.04 Length=20.647359 Units=m
New Line.LINECmpd_42 Bus1=456 Bus2=504 phases=3 Linecode=4c_25 Length=26.048 Units=m
New Line.LINECmpd_43 Bus1=1807 Bus2=1923 phases=3 Linecode=3c_95_SAC_XC Length=44.505932 Units=m
New Line.LINECmpd_44 Bus1=789 Bus2=1076 phases=3 Linecode=2c_.04 Length=9.60607 Units=m
New Line.LINECmpd_45 Bus1=1307 Bus2=1553 phases=3 Linecode=35_SAC_PC Length=12.96614 Units=m
New Line.LINECmpd_46 Bus1=1307 Bus2=1717 phases=3 Linecode=35_SAC_PC Length=18.22176 Units=m
New Line.LINECmpd_47 Bus1=2190 Bus2=2246 phases=3 Linecode=35_SAC_PC Length=25.97547 Units=m
New Line.LINECmpd_48 Bus1=831 Bus2=1307 phases=3 Linecode=3c_300_SAC Length=16.55985 Units=m
New Line.LINECmpd_49 Bus1=773 Bus2=1049 phases=3 Linecode=2c_.04 Length=23.768618 Units=m
New Line.LINECmpd_50 Bus1=1307 Bus2=1664 phases=3 Linecode=35_SAC_PC Length=16.65351 Units=m
New Line.LINECmpd_51 Bus1=1065 Bus2=1409 phases=3 Linecode=2c_.04 Length=16.54123 Units=m
New Line.LINECmpd_52 Bus1=385 Bus2=576 phases=3 Linecode=4c_.12 Length=11.73658 Units=m
New Line.LINECmpd_53 Bus1=407 Bus2=679 phases=3 Linecode=2c_.04 Length=13.898576 Units=m
New Line.LINECmpd_54 Bus1=1789 Bus2=1859 phases=3 Linecode=3c_95_SAC_XC Length=12.74489 Units=m
New Line.LINECmpd_55 Bus1=811 Bus2=1009 phases=3 Linecode=2c_.04 Length=7.47223 Units=m
New Line.LINECmpd_56 Bus1=658 Bus2=726 phases=3 Linecode=2c_.04 Length=16.56008 Units=m
New Line.LINECmpd_57 Bus1=786 Bus2=861 phases=3 Linecode=4c_.04 Length=7.92825 Units=m
New Line.LINECmpd_58 Bus1=576 Bus2=724 phases=3 Linecode=2c_.04 Length=14.580207 Units=m
New Line.LINECmpd_59 Bus1=1923 Bus2=2301 phases=3 Linecode=35_SAC_PC Length=15.000475 Units=m
New Line.LINECmpd_60 Bus1=854 Bus2=1167 phases=3 Linecode=2c_.04 Length=15.11673 Units=m
New Line.LINECmpd_61 Bus1=1049 Bus2=1260 phases=3 Linecode=2c_.04 Length=2.832003 Units=m
New Line.LINECmpd_62 Bus1=656 Bus2=708 phases=3 Linecode=2c_.04 Length=8.24592 Units=m
New Line.LINECmpd_63 Bus1=1006 Bus2=1280 phases=3 Linecode=2c_.04 Length=13.52229 Units=m
New Line.LINECmpd_64 Bus1=1137 Bus2=1355 phases=3 Linecode=2c_.04 Length=2.13545 Units=m
New Line.LINECmpd_65 Bus1=729 Bus2=1125 phases=3 Linecode=2c_.04 Length=17.34189 Units=m
New Line.LINECmpd_66 Bus1=911 Bus2=1033 phases=3 Linecode=4c_.04 Length=25.6434 Units=m
New Line.LINECmpd_67 Bus1=244 Bus2=293 phases=3 Linecode=2c_.04 Length=14.129096 Units=m
New Line.LINECmpd_68 Bus1=911 Bus2=1065 phases=3 Linecode=4c_.06 Length=35.2508 Units=m
New Line.LINECmpd_69 Bus1=1298 Bus2=1522 phases=3 Linecode=2c_.04 Length=10.019005 Units=m
New Line.LINECmpd_70 Bus1=440 Bus2=601 phases=3 Linecode=2c_.04 Length=11.987708 Units=m
New Line.LINECmpd_71 Bus1=814 Bus2=1120 phases=3 Linecode=2c_.04 Length=12.598754 Units=m
New Line.LINECmpd_72 Bus1=711 Bus2=1085 phases=3 Linecode=35_SAC_XC Length=25.60652 Units=m
New Line.LINECmpd_73 Bus1=1009 Bus2=1669 phases=3 Linecode=2c_.04 Length=12.13176 Units=m
New Line.LINECmpd_74 Bus1=703 Bus2=735 phases=3 Linecode=4c_.25 Length=21.5146 Units=m
New Line.LINECmpd_75 Bus1=1033 Bus2=1276 phases=3 Linecode=2c_.04 Length=2.07147 Units=m
New Line.LINECmpd_76 Bus1=440 Bus2=600 phases=3 Linecode=2c_.04 Length=8.008614 Units=m
New Line.LINECmpd_77 Bus1=729 Bus2=778 phases=3 Linecode=4c_.12 Length=18.3432 Units=m
New Line.LINECmpd_78 Bus1=1859 Bus2=1977 phases=3 Linecode=35_SAC_PSC Length=11.696283 Units=m
New Line.LINECmpd_79 Bus1=1261 Bus2=1581 phases=3 Linecode=2c_.04 Length=9.363263 Units=m
New Line.LINECmpd_80 Bus1=1923 Bus2=2190 phases=3 Linecode=3c_95_SAC_XC Length=15.355713 Units=m
New Line.LINECmpd_81 Bus1=293 Bus2=390 phases=3 Linecode=2c_.04 Length=2.235158 Units=m
New Line.LINECmpd_82 Bus1=177 Bus2=217 phases=3 Linecode=2c_.04 Length=10.074 Units=m
New Line.LINECmpd_83 Bus1=1049 Bus2=1261 phases=3 Linecode=2c_.04 Length=3.147886 Units=m
New Line.LINECmpd_84 Bus1=861 Bus2=1006 phases=3 Linecode=2c_.04 Length=1.64222 Units=m
New Line.LINECmpd_85 Bus1=361 Bus2=546 phases=3 Linecode=2c_.04 Length=9.402064 Units=m
New Line.LINECmpd_86 Bus1=1246 Bus2=1525 phases=3 Linecode=2c_.04 Length=7.73502 Units=m
New Line.LINECmpd_87 Bus1=807 Bus2=1108 phases=3 Linecode=2c_.04 Length=17.24963 Units=m
New Line.LINECmpd_88 Bus1=1033 Bus2=1246 phases=3 Linecode=2c_.04 Length=2.19812 Units=m
New Line.LINECmpd_89 Bus1=778 Bus2=901 phases=3 Linecode=2c_.04 Length=8.40309 Units=m
New Line.LINECmpd_90 Bus1=2013 Bus2=2163 phases=3 Linecode=35_SAC_PSC Length=13.625238 Units=m
New Line.LINECmpd_91 Bus1=1807 Bus2=1827 phases=3 Linecode=3c_95_SAC_XC Length=2.693853 Units=m
New Line.LINECmpd_92 Bus1=1355 Bus2=1603 phases=3 Linecode=2c_.04 Length=14.57775 Units=m
New Line.LINECmpd_93 Bus1=215 Bus2=226 phases=3 Linecode=4c_.25 Length=13.5992 Units=m
New Line.LINECmpd_94 Bus1=861 Bus2=1007 phases=3 Linecode=2c_.04 Length=11.48632 Units=m
New Line.LINECmpd_95 Bus1=1276 Bus2=1526 phases=3 Linecode=2c_.04 Length=8.8541 Units=m
New Line.LINECmpd_96 Bus1=293 Bus2=361 phases=3 Linecode=2c_.04 Length=2.351682 Units=m
New Line.LINECmpd_97 Bus1=2190 Bus2=2253 phases=3 Linecode=35_SAC_PC Length=25.9419 Units=m
New Line.LINECmpd_98 Bus1=610 Bus2=658 phases=3 Linecode=4c_.12 Length=14.9362 Units=m
New Line.LINECmpd_99 Bus1=1137 Bus2=1298 phases=3 Linecode=2c_.04 Length=11.45158 Units=m
New Line.LINECmpd_100 Bus1=658 Bus2=711 phases=3 Linecode=4c_.12 Length=14.4334 Units=m
New Line.LINECmpd_101 Bus1=177 Bus2=215 phases=3 Linecode=4c_.25 Length=33.9097 Units=m
New Line.LINECmpd_102 Bus1=1783 Bus2=1789 phases=3 Linecode=3c_240_SAC_XC Length=9.0491 Units=m
New Line.LINECmpd_103 Bus1=1859 Bus2=1884 phases=3 Linecode=3c_95_SAC_XC Length=3.33605 Units=m
New Line.LINECmpd_104 Bus1=215 Bus2=266 phases=3 Linecode=2c_.04 Length=13.734519 Units=m
New Line.LINECmpd_105 Bus1=750 Bus2=786 phases=3 Linecode=4c_.25 Length=22.6451 Units=m
New Line.LINECmpd_106 Bus1=394 Bus2=428 phases=3 Linecode=4c_25 Length=14.8027 Units=m
New Line.LINECmpd_107 Bus1=160 Bus2=177 phases=3 Linecode=4c_.25 Length=29.4185 Units=m
New Line.LINECmpd_108 Bus1=1789 Bus2=1807 phases=3 Linecode=3c_240_SAC_XC Length=18.13877 Units=m
New Line.LINECmpd_109 Bus1=441 Bus2=485 phases=3 Linecode=2c_.04 Length=15.1648 Units=m
New Line.LINECmpd_110 Bus1=1884 Bus2=2029 phases=3 Linecode=35_SAC_PC Length=15.318772 Units=m
New Line.LINECmpd_111 Bus1=656 Bus2=693 phases=3 Linecode=2c_.04 Length=7.1453 Units=m
New Line.LINECmpd_112 Bus1=226 Bus2=244 phases=3 Linecode=4c_.25 Length=22.785 Units=m
New Line.LINECmpd_113 Bus1=1206 Bus2=1267 phases=3 Linecode=2c_.04 Length=7.0057 Units=m
New Line.LINECmpd_114 Bus1=1740 Bus2=1754 phases=3 Linecode=2c_.04 Length=4.01146 Units=m
New Line.LINECmpd_115 Bus1=1168 Bus2=1236 phases=3 Linecode=2c_.04 Length=5.8172 Units=m
New Line.LINECmpd_116 Bus1=610 Bus2=656 phases=3 Linecode=2c_.04 Length=6.7607 Units=m
New Line.LINECmpd_117 Bus1=858 Bus2=911 phases=3 Linecode=4c_.06 Length=18.0308 Units=m
New Line.LINECmpd_118 Bus1=1669 Bus2=1697 phases=3 Linecode=2c_.04 Length=8.3527 Units=m
New Line.LINECmpd_119 Bus1=773 Bus2=814 phases=3 Linecode=2c_.04 Length=9.4236 Units=m
